CH3O-Ph-RB3LYP-aug-cc-pVDZ.log
 OpenBabel05031703513D
Gaussian home/ubuntu/g09/g09 #p opt=(verytight,maxcycles=1000) int=(grid=ultrafi
 16 16  0  0  0  0  0  0  0  0999 V2000
    0.0352    1.0637    0.0000 C   0  0  0  0  0  0  0  0  0  0  0  0
   -1.3362    1.3544    0.0000 C   0  0  0  0  0  0  0  0  0  0  0  0
   -2.2867    0.3336    0.0000 C   0  0  0  0  0  0  0  0  0  0  0  0
   -1.8556   -1.0006    0.0000 C   0  0  0  0  0  0  0  0  0  0  0  0
   -0.4970   -1.3067    0.0000 C   0  0  0  0  0  0  0  0  0  0  0  0
    0.4552   -0.2738    0.0000 C   0  0  0  0  0  0  0  0  0  0  0  0
    0.7533    1.8803    0.0000 H   0  0  0  0  0  0  0  0  0  0  0  0
   -1.6559    2.3973    0.0000 H   0  0  0  0  0  0  0  0  0  0  0  0
   -2.5862   -1.8104    0.0000 H   0  0  0  0  0  0  0  0  0  0  0  0
   -0.1490   -2.3393    0.0000 H   0  0  0  0  0  0  0  0  0  0  0  0
    1.7639   -0.6746    0.0000 O   0  0  0  0  0  0  0  0  0  0  0  0
    2.7736    0.3276    0.0000 C   0  0  0  0  0  0  0  0  0  0  0  0
    3.7270   -0.2098    0.0000 H   0  0  0  0  0  0  0  0  0  0  0  0
    2.7100    0.9600    0.8992 H   0  0  0  0  0  0  0  0  0  0  0  0
    2.7100    0.9600   -0.8992 H   0  0  0  0  0  0  0  0  0  0  0  0
   -3.3506    0.5698    0.0000 H   0  0  0  0  0  0  0  0  0  0  0  0
  1  2  2  0  0  0  0
  1  6  1  0  0  0  0
  1  7  1  0  0  0  0
  2  3  1  0  0  0  0
  2  8  1  0  0  0  0
  3  4  2  0  0  0  0
  3 16  1  0  0  0  0
  4  5  1  0  0  0  0
  4  9  1  0  0  0  0
  5  6  2  0  0  0  0
  5 10  1  0  0  0  0
  6 11  1  0  0  0  0
 11 12  1  0  0  0  0
 12 13  1  0  0  0  0
 12 14  1  0  0  0  0
 15 12  1  0  0  0  0
M  END
