p-NO2-Ph-N2-F-RB3LYP-aug-cc-pVDZ-T353.log
 OpenBabel10201711003D
Gaussian home/alex/g09/g09 #p Temperature=353.15 int=(grid=ultrafine) CPHF=(grid
 16 15  0  0  0  0  0  0  0  0999 V2000
   -0.6293    1.1672   -0.0001 C   0  0  0  0  0  0  0  0  0  0  0  0
    0.7646    1.0932   -0.0001 C   0  0  0  0  0  0  0  0  0  0  0  0
    1.3563   -0.1695   -0.0000 C   0  0  0  0  0  0  0  0  0  0  0  0
    0.6129   -1.3585    0.0001 C   0  0  0  0  0  0  0  0  0  0  0  0
   -0.7761   -1.2759    0.0001 C   0  0  0  0  0  0  0  0  0  0  0  0
   -1.3713   -0.0128    0.0000 C   0  0  0  0  0  0  0  0  0  0  0  0
   -1.1393    2.1269   -0.0001 H   0  0  0  0  0  0  0  0  0  0  0  0
    1.4006    1.9719   -0.0001 H   0  0  0  0  0  0  0  0  0  0  0  0
    1.1163   -2.3226    0.0001 H   0  0  0  0  0  0  0  0  0  0  0  0
   -1.3959   -2.1686    0.0002 H   0  0  0  0  0  0  0  0  0  0  0  0
   -2.8523    0.0732    0.0001 N   0  0  0  0  0  0  0  0  0  0  0  0
   -3.3538    1.1918   -0.0000 O   0  0  0  0  0  0  0  0  0  0  0  0
   -3.4789   -0.9815    0.0001 O   0  0  0  0  0  0  0  0  0  0  0  0
    2.7905   -0.3265   -0.0000 N   0  0  0  0  0  0  0  0  0  0  0  0
    3.5631   -1.1563   -0.0001 N   0  0  0  0  0  0  0  0  0  0  0  0
    3.3810    1.3239   -0.0001 F   0  0  0  0  0  0  0  0  0  0  0  0
  1  6  1  0  0  0  0
  2  1  2  0  0  0  0
  2  3  1  0  0  0  0
  3  4  2  0  0  0  0
  4  5  1  0  0  0  0
  4  9  1  0  0  0  0
  5 10  1  0  0  0  0
  6 11  1  0  0  0  0
  6  5  2  0  0  0  0
  7  1  1  0  0  0  0
  8  2  1  0  0  0  0
 11 13  2  0  0  0  0
 12 11  2  0  0  0  0
 14  3  1  0  0  0  0
 15 14  2  0  0  0  0
M  RAD  2  15   2  16   2
M  END
