p-NO2-Ph-Ph-p-NO2-RB3LYP-aug-cc-pVDZ.log
 OpenBabel05031703513D
Gaussian home/ubuntu/g09/g09 #p opt=(verytight,maxcycles=1000) SCF=(maxcycles=10
 26 27  0  0  0  0  0  0  0  0999 V2000
   -0.7422    0.0000   -0.0000 C   0  0  0  0  0  0  0  0  0  0  0  0
   -1.4623   -1.1441   -0.3949 C   0  0  0  0  0  0  0  0  0  0  0  0
   -2.8552   -1.1519   -0.3995 C   0  0  0  0  0  0  0  0  0  0  0  0
   -3.5339    0.0000   -0.0001 C   0  0  0  0  0  0  0  0  0  0  0  0
   -2.8552    1.1519    0.3993 C   0  0  0  0  0  0  0  0  0  0  0  0
   -1.4623    1.1441    0.3949 C   0  0  0  0  0  0  0  0  0  0  0  0
   -0.9281   -2.0320   -0.7300 H   0  0  0  0  0  0  0  0  0  0  0  0
   -3.4179   -2.0274   -0.7131 H   0  0  0  0  0  0  0  0  0  0  0  0
   -3.4179    2.0274    0.7129 H   0  0  0  0  0  0  0  0  0  0  0  0
   -0.9282    2.0320    0.7299 H   0  0  0  0  0  0  0  0  0  0  0  0
   -5.0094    0.0000   -0.0001 N   0  0  0  0  0  0  0  0  0  0  0  0
   -5.5802   -1.0297   -0.3514 O   0  0  0  0  0  0  0  0  0  0  0  0
   -5.5802    1.0297    0.3511 O   0  0  0  0  0  0  0  0  0  0  0  0
    0.7422    0.0000    0.0000 C   0  0  0  0  0  0  0  0  0  0  0  0
    1.4623   -1.1440    0.3953 C   0  0  0  0  0  0  0  0  0  0  0  0
    1.4623    1.1440   -0.3952 C   0  0  0  0  0  0  0  0  0  0  0  0
    2.8552   -1.1517    0.3998 C   0  0  0  0  0  0  0  0  0  0  0  0
    0.9281   -2.0318    0.7305 H   0  0  0  0  0  0  0  0  0  0  0  0
    2.8552    1.1517   -0.3996 C   0  0  0  0  0  0  0  0  0  0  0  0
    0.9282    2.0318   -0.7305 H   0  0  0  0  0  0  0  0  0  0  0  0
    3.5339    0.0000    0.0001 C   0  0  0  0  0  0  0  0  0  0  0  0
    3.4179   -2.0272    0.7137 H   0  0  0  0  0  0  0  0  0  0  0  0
    3.4179    2.0272   -0.7135 H   0  0  0  0  0  0  0  0  0  0  0  0
    5.0094    0.0000    0.0001 N   0  0  0  0  0  0  0  0  0  0  0  0
    5.5802   -1.0296    0.3517 O   0  0  0  0  0  0  0  0  0  0  0  0
    5.5802    1.0296   -0.3514 O   0  0  0  0  0  0  0  0  0  0  0  0
  1 14  1  0  0  0  0
  1  6  2  0  0  0  0
  2  1  1  0  0  0  0
  3  2  2  0  0  0  0
  3  4  1  0  0  0  0
  4  5  2  0  0  0  0
  5  9  1  0  0  0  0
  6  5  1  0  0  0  0
  6 10  1  0  0  0  0
  7  2  1  0  0  0  0
  8  3  1  0  0  0  0
 11  4  1  0  0  0  0
 11 13  2  0  0  0  0
 12 11  2  0  0  0  0
 14 15  2  0  0  0  0
 15 17  1  0  0  0  0
 15 18  1  0  0  0  0
 16 14  1  0  0  0  0
 17 22  1  0  0  0  0
 19 16  2  0  0  0  0
 19 21  1  0  0  0  0
 20 16  1  0  0  0  0
 21 24  1  0  0  0  0
 21 17  2  0  0  0  0
 23 19  1  0  0  0  0
 24 25  2  0  0  0  0
 26 24  2  0  0  0  0
M  END
