p-NO2-Ph-N2-OTf-RB3LYP-aug-cc-pVDZ-T348.log
 OpenBabel10201711003D
Gaussian home/ubuntu/g09/g09 #p Temperature=348.15 int=(grid=ultrafine) CPHF=(gr
 23 22  0  0  0  0  0  0  0  0999 V2000
    2.1984   -0.6837   -0.4481 C   0  0  0  0  0  0  0  0  0  0  0  0
    1.0882    0.1603   -0.4281 C   0  0  0  0  0  0  0  0  0  0  0  0
    1.3013    1.4759    0.0081 C   0  0  0  0  0  0  0  0  0  0  0  0
    2.5443    1.9908    0.4106 C   0  0  0  0  0  0  0  0  0  0  0  0
    3.6331    1.1282    0.3911 C   0  0  0  0  0  0  0  0  0  0  0  0
    3.4357   -0.1879   -0.0382 C   0  0  0  0  0  0  0  0  0  0  0  0
    2.1066   -1.7167   -0.7747 H   0  0  0  0  0  0  0  0  0  0  0  0
    0.0862   -0.1427   -0.7502 H   0  0  0  0  0  0  0  0  0  0  0  0
    2.6446    3.0250    0.7333 H   0  0  0  0  0  0  0  0  0  0  0  0
    4.6231    1.4558    0.6967 H   0  0  0  0  0  0  0  0  0  0  0  0
    4.6123   -1.1015   -0.0611 N   0  0  0  0  0  0  0  0  0  0  0  0
    5.6852   -0.6388    0.3080 O   0  0  0  0  0  0  0  0  0  0  0  0
    4.4236   -2.2469   -0.4470 O   0  0  0  0  0  0  0  0  0  0  0  0
    0.1999    2.3355    0.0400 N   0  0  0  0  0  0  0  0  0  0  0  0
   -0.7939    2.8420    0.1075 N   0  0  0  0  0  0  0  0  0  0  0  0
   -2.7680    0.4221   -0.3247 S   0  0  0  0  0  0  0  0  0  0  0  0
   -2.8561   -1.3438    0.3678 C   0  0  0  0  0  0  0  0  0  0  0  0
   -2.2305    1.1993    0.8738 O   0  0  0  0  0  0  0  0  0  0  0  0
   -4.1518    0.7456   -0.7413 O   0  0  0  0  0  0  0  0  0  0  0  0
   -1.7318    0.3157   -1.4204 O   0  0  0  0  0  0  0  0  0  0  0  0
   -1.6200   -1.7542    0.7480 F   0  0  0  0  0  0  0  0  0  0  0  0
   -3.6649   -1.4029    1.4339 F   0  0  0  0  0  0  0  0  0  0  0  0
   -3.3070   -2.1922   -0.5683 F   0  0  0  0  0  0  0  0  0  0  0  0
  1  2  2  0  0  0  0
  1  6  1  0  0  0  0
  2  3  1  0  0  0  0
  3 14  1  0  0  0  0
  3  4  2  0  0  0  0
  4  9  1  0  0  0  0
  5  4  1  0  0  0  0
  5 10  1  0  0  0  0
  6  5  2  0  0  0  0
  7  1  1  0  0  0  0
  8  2  1  0  0  0  0
 11  6  1  0  0  0  0
 11 12  2  0  0  0  0
 13 11  2  0  0  0  0
 14 15  1  0  0  0  0
 16 17  1  0  0  0  0
 16 18  1  0  0  0  0
 17 21  1  0  0  0  0
 17 22  1  0  0  0  0
 19 16  2  0  0  0  0
 20 16  2  0  0  0  0
 23 17  1  0  0  0  0
M  RAD  3  14   2  15   3  18   2
M  END
