BF3-RB3LYP-aug-cc-pVDZ-T298.log
 OpenBabel10201711003D
Gaussian home/ubuntu/g09/g09 #p opt=(verytight,maxcycles=1000) int=(grid=ultrafi
  4  3  0  0  0  0  0  0  0  0999 V2000
    0.0000   -0.0000    0.0000 B   0  0  0  0  0  0  0  0  0  0  0  0
    0.0000    1.3272    0.0000 F   0  0  0  0  0  0  0  0  0  0  0  0
    0.0000   -0.6636    1.1494 F   0  0  0  0  0  0  0  0  0  0  0  0
    0.0000   -0.6636   -1.1494 F   0  0  0  0  0  0  0  0  0  0  0  0
  1  2  1  0  0  0  0
  1  3  1  0  0  0  0
  4  1  1  0  0  0  0
M  END
