p-CH3O-Ph-OTf-RB3LYP-aug-cc-pVDZ-T298.log
 OpenBabel10201711003D
Gaussian home/ubuntu/g09/g09 #p opt=(verytight,maxcycles=1000) int=(grid=ultrafi
 23 23  0  0  0  0  0  0  0  0999 V2000
    2.8513   -0.9852   -0.2368 C   0  0  0  0  0  0  0  0  0  0  0  0
    1.4633   -1.0419   -0.4058 C   0  0  0  0  0  0  0  0  0  0  0  0
    0.7293    0.1378   -0.4305 C   0  0  0  0  0  0  0  0  0  0  0  0
    1.3439    1.3839   -0.2863 C   0  0  0  0  0  0  0  0  0  0  0  0
    2.7231    1.4411   -0.1194 C   0  0  0  0  0  0  0  0  0  0  0  0
    3.4841    0.2589   -0.0926 C   0  0  0  0  0  0  0  0  0  0  0  0
    3.4180   -1.9123   -0.2209 H   0  0  0  0  0  0  0  0  0  0  0  0
    0.9566   -1.9985   -0.5190 H   0  0  0  0  0  0  0  0  0  0  0  0
    0.7435    2.2915   -0.3079 H   0  0  0  0  0  0  0  0  0  0  0  0
    3.2337    2.3963   -0.0071 H   0  0  0  0  0  0  0  0  0  0  0  0
   -0.6623    0.0815   -0.6818 O   0  0  0  0  0  0  0  0  0  0  0  0
   -1.6513   -0.0500    0.6605 S   0  0  0  0  0  0  0  0  0  0  0  0
   -1.6229    1.1926    1.4524 O   0  0  0  0  0  0  0  0  0  0  0  0
   -1.4950   -1.3718    1.2934 O   0  0  0  0  0  0  0  0  0  0  0  0
   -3.2504   -0.0661   -0.3729 C   0  0  0  0  0  0  0  0  0  0  0  0
   -3.3592    1.0666   -1.0674 F   0  0  0  0  0  0  0  0  0  0  0  0
   -3.2506   -1.1105   -1.2015 F   0  0  0  0  0  0  0  0  0  0  0  0
   -4.2716   -0.1698    0.4830 F   0  0  0  0  0  0  0  0  0  0  0  0
    4.8265    0.4264    0.0750 O   0  0  0  0  0  0  0  0  0  0  0  0
    5.6530   -0.7339    0.1190 C   0  0  0  0  0  0  0  0  0  0  0  0
    5.5962   -1.2988   -0.8240 H   0  0  0  0  0  0  0  0  0  0  0  0
    6.6731   -0.3654    0.2624 H   0  0  0  0  0  0  0  0  0  0  0  0
    5.3768   -1.3872    0.9604 H   0  0  0  0  0  0  0  0  0  0  0  0
  1  7  1  0  0  0  0
  1  6  2  0  0  0  0
  2  1  1  0  0  0  0
  3  2  2  0  0  0  0
  3  4  1  0  0  0  0
  4  5  2  0  0  0  0
  5  6  1  0  0  0  0
  5 10  1  0  0  0  0
  6 19  1  0  0  0  0
  8  2  1  0  0  0  0
  9  4  1  0  0  0  0
 11  3  1  0  0  0  0
 11 12  1  0  0  0  0
 12 14  2  0  0  0  0
 12 13  2  0  0  0  0
 15 18  1  0  0  0  0
 15 12  1  0  0  0  0
 16 15  1  0  0  0  0
 17 15  1  0  0  0  0
 19 20  1  0  0  0  0
 20 22  1  0  0  0  0
 20 23  1  0  0  0  0
 21 20  1  0  0  0  0
M  END
