p-NO2-Ph-N2-OTs-RB3LYP-aug-cc-pVDZ-T348.log
 OpenBabel10201711003D
Gaussian home/ubuntu/g09/g09 #p Temperature=348.15 int=(grid=ultrafine) CPHF=(gr
 33 34  0  0  0  0  0  0  0  0999 V2000
    2.8714    0.3039   -1.1284 C   0  0  0  0  0  0  0  0  0  0  0  0
    1.9974   -0.7794   -1.1149 C   0  0  0  0  0  0  0  0  0  0  0  0
    2.0102   -1.6587   -0.0226 C   0  0  0  0  0  0  0  0  0  0  0  0
    2.9058   -1.4816    1.0392 C   0  0  0  0  0  0  0  0  0  0  0  0
    3.7639   -0.3840    1.0395 C   0  0  0  0  0  0  0  0  0  0  0  0
    3.7340    0.4924   -0.0461 C   0  0  0  0  0  0  0  0  0  0  0  0
    2.8886    1.0051   -1.9587 H   0  0  0  0  0  0  0  0  0  0  0  0
    1.3104   -0.9453   -1.9413 H   0  0  0  0  0  0  0  0  0  0  0  0
    2.9212   -2.2002    1.8568 H   0  0  0  0  0  0  0  0  0  0  0  0
    4.4583   -0.2081    1.8569 H   0  0  0  0  0  0  0  0  0  0  0  0
    4.6482    1.6500   -0.0554 N   0  0  0  0  0  0  0  0  0  0  0  0
    5.3993    1.7923    0.9063 O   0  0  0  0  0  0  0  0  0  0  0  0
    4.6030    2.4054   -1.0235 O   0  0  0  0  0  0  0  0  0  0  0  0
    1.2165   -2.8487   -0.0176 N   0  0  0  0  0  0  0  0  0  0  0  0
    0.0026   -2.8931   -0.0490 N   0  0  0  0  0  0  0  0  0  0  0  0
   -2.8494    0.7655   -1.1550 C   0  0  0  0  0  0  0  0  0  0  0  0
   -3.1292    2.1282   -1.0707 C   0  0  0  0  0  0  0  0  0  0  0  0
   -3.2432    2.7735    0.1740 C   0  0  0  0  0  0  0  0  0  0  0  0
   -3.0737    2.0143    1.3423 C   0  0  0  0  0  0  0  0  0  0  0  0
   -2.7933    0.6476    1.2836 C   0  0  0  0  0  0  0  0  0  0  0  0
   -2.6836    0.0441    0.0306 C   0  0  0  0  0  0  0  0  0  0  0  0
   -2.7759    0.2617   -2.1169 H   0  0  0  0  0  0  0  0  0  0  0  0
   -3.2673    2.7009   -1.9887 H   0  0  0  0  0  0  0  0  0  0  0  0
   -3.1666    2.4964    2.3158 H   0  0  0  0  0  0  0  0  0  0  0  0
   -2.6757    0.0563    2.1897 H   0  0  0  0  0  0  0  0  0  0  0  0
   -2.3284   -1.7086   -0.0609 S   0  0  0  0  0  0  0  0  0  0  0  0
   -0.6169   -1.5403   -0.0351 O   0  0  0  0  0  0  0  0  0  0  0  0
   -2.7021   -2.2440   -1.3861 O   0  0  0  0  0  0  0  0  0  0  0  0
   -2.7313   -2.3868    1.1872 O   0  0  0  0  0  0  0  0  0  0  0  0
   -3.5495    4.2493    0.2407 C   0  0  0  0  0  0  0  0  0  0  0  0
   -2.7804    4.8341   -0.2844 H   0  0  0  0  0  0  0  0  0  0  0  0
   -4.5123    4.4724   -0.2415 H   0  0  0  0  0  0  0  0  0  0  0  0
   -3.5979    4.6028    1.2775 H   0  0  0  0  0  0  0  0  0  0  0  0
  1  2  2  0  0  0  0
  1  6  1  0  0  0  0
  2  3  1  0  0  0  0
  3 14  1  0  0  0  0
  3  4  2  0  0  0  0
  4  5  1  0  0  0  0
  4  9  1  0  0  0  0
  5 10  1  0  0  0  0
  6  5  2  0  0  0  0
  7  1  1  0  0  0  0
  8  2  1  0  0  0  0
 11  6  1  0  0  0  0
 11 12  2  0  0  0  0
 13 11  2  0  0  0  0
 15 27  1  0  0  0  0
 15 14  1  0  0  0  0
 16 17  2  0  0  0  0
 16 21  1  0  0  0  0
 17 18  1  0  0  0  0
 18 30  1  0  0  0  0
 18 19  2  0  0  0  0
 19 24  1  0  0  0  0
 20 19  1  0  0  0  0
 20 25  1  0  0  0  0
 21 20  2  0  0  0  0
 22 16  1  0  0  0  0
 23 17  1  0  0  0  0
 26 27  1  0  0  0  0
 26 21  1  0  0  0  0
 26 29  2  0  0  0  0
 28 26  2  0  0  0  0
 30 33  1  0  0  0  0
 31 30  1  0  0  0  0
 32 30  1  0  0  0  0
M  RAD  2  14   2  15   2
M  END
