NO2-Ph-RB3LYP-aug-cc-pVDZ-T298.log
 OpenBabel05121723103D
Gaussian home/ubuntu/g09/g09 #p opt=(verytight,maxcycles=1000) int=(grid=ultrafi
 14 14  0  0  0  0  0  0  0  0999 V2000
    2.5212    0.0000    0.0000 C   0  0  0  0  0  0  0  0  0  0  0  0
    1.8246    1.2140    0.0000 C   0  0  0  0  0  0  0  0  0  0  0  0
    0.4287    1.2229    0.0000 C   0  0  0  0  0  0  0  0  0  0  0  0
   -0.2449    0.0000    0.0000 C   0  0  0  0  0  0  0  0  0  0  0  0
    0.4287   -1.2229   -0.0000 C   0  0  0  0  0  0  0  0  0  0  0  0
    1.8246   -1.2140   -0.0000 C   0  0  0  0  0  0  0  0  0  0  0  0
    3.6115    0.0000    0.0000 H   0  0  0  0  0  0  0  0  0  0  0  0
    2.3692    2.1580    0.0000 H   0  0  0  0  0  0  0  0  0  0  0  0
   -0.1387    2.1500    0.0000 H   0  0  0  0  0  0  0  0  0  0  0  0
   -0.1387   -2.1500   -0.0000 H   0  0  0  0  0  0  0  0  0  0  0  0
    2.3692   -2.1580   -0.0000 H   0  0  0  0  0  0  0  0  0  0  0  0
   -1.7223    0.0000    0.0000 N   0  0  0  0  0  0  0  0  0  0  0  0
   -2.2947    1.0873   -0.0000 O   0  0  0  0  0  0  0  0  0  0  0  0
   -2.2947   -1.0873    0.0000 O   0  0  0  0  0  0  0  0  0  0  0  0
  1  7  1  0  0  0  0
  1  2  2  0  0  0  0
  2  3  1  0  0  0  0
  2  8  1  0  0  0  0
  3  9  1  0  0  0  0
  4 12  1  0  0  0  0
  4  3  2  0  0  0  0
  5  6  2  0  0  0  0
  5 10  1  0  0  0  0
  5  4  1  0  0  0  0
  6  1  1  0  0  0  0
 11  6  1  0  0  0  0
 12 14  2  0  0  0  0
 13 12  2  0  0  0  0
M  END
