o-NO2-Ph-N2-OTf-RB3LYP-aug-cc-pVDZ-T298.log
 OpenBabel06091809193D
Gaussian home/ubuntu/g09/g09 #p opt=(verytight,maxcycles=1000) Int=(Grid=Ultrafi
 23 22  0  0  0  0  0  0  0  0999 V2000
    1.3594    2.3420   -0.6513 C   0  0  0  0  0  0  0  0  0  0  0  0
    0.8836    1.0271   -0.6871 C   0  0  0  0  0  0  0  0  0  0  0  0
    1.7731    0.0067   -0.3323 C   0  0  0  0  0  0  0  0  0  0  0  0
    3.1083    0.2680    0.0382 C   0  0  0  0  0  0  0  0  0  0  0  0
    3.5552    1.5795    0.0701 C   0  0  0  0  0  0  0  0  0  0  0  0
    2.6753    2.6160   -0.2752 C   0  0  0  0  0  0  0  0  0  0  0  0
    0.6807    3.1510   -0.9180 H   0  0  0  0  0  0  0  0  0  0  0  0
   -0.1410    0.7624   -0.9869 H   0  0  0  0  0  0  0  0  0  0  0  0
    1.2630   -1.2917   -0.3762 N   0  0  0  0  0  0  0  0  0  0  0  0
    0.5719   -2.1665   -0.3891 N   0  0  0  0  0  0  0  0  0  0  0  0
   -2.3492   -0.8234   -0.3079 S   0  0  0  0  0  0  0  0  0  0  0  0
   -3.1785    0.6732    0.5160 C   0  0  0  0  0  0  0  0  0  0  0  0
   -1.6982   -0.2214   -1.5344 O   0  0  0  0  0  0  0  0  0  0  0  0
   -3.4451   -1.7915   -0.5438 O   0  0  0  0  0  0  0  0  0  0  0  0
   -1.3127   -1.2181    0.7348 O   0  0  0  0  0  0  0  0  0  0  0  0
   -2.2585    1.6451    0.7472 F   0  0  0  0  0  0  0  0  0  0  0  0
   -4.1299    1.1843   -0.2804 F   0  0  0  0  0  0  0  0  0  0  0  0
   -3.7316    0.3342    1.6888 F   0  0  0  0  0  0  0  0  0  0  0  0
    3.0320    3.6451   -0.2469 H   0  0  0  0  0  0  0  0  0  0  0  0
    4.5832    1.7747    0.3656 H   0  0  0  0  0  0  0  0  0  0  0  0
    4.0321   -0.8230    0.4000 N   0  0  0  0  0  0  0  0  0  0  0  0
    3.5768   -1.9647    0.3723 O   0  0  0  0  0  0  0  0  0  0  0  0
    5.1773   -0.5213    0.6962 O   0  0  0  0  0  0  0  0  0  0  0  0
  1  6  1  0  0  0  0
  2  1  2  0  0  0  0
  2  3  1  0  0  0  0
  3  4  2  0  0  0  0
  4  5  1  0  0  0  0
  4 21  1  0  0  0  0
  5 20  1  0  0  0  0
  6 19  1  0  0  0  0
  6  5  2  0  0  0  0
  7  1  1  0  0  0  0
  8  2  1  0  0  0  0
  9  3  1  0  0  0  0
 10  9  1  0  0  0  0
 11 12  1  0  0  0  0
 11 15  1  0  0  0  0
 12 16  1  0  0  0  0
 12 18  1  0  0  0  0
 13 11  2  0  0  0  0
 14 11  2  0  0  0  0
 17 12  1  0  0  0  0
 21 23  2  0  0  0  0
 22 21  2  0  0  0  0
M  RAD  3   9   2  10   3  15   2
M  END
