o-NO2-Ph-OTf-RB3LYP-aug-cc-pVDZ-T298.log
 OpenBabel05121723103D
Gaussian home/ubuntu/g09/g09 #p opt=(verytight,maxcycles=1000) int=(grid=ultrafi
 21 21  0  0  0  0  0  0  0  0999 V2000
   -3.0741   -2.0652   -0.2928 C   0  0  0  0  0  0  0  0  0  0  0  0
   -1.7141   -1.8522   -0.5264 C   0  0  0  0  0  0  0  0  0  0  0  0
   -1.1861   -0.5626   -0.4477 C   0  0  0  0  0  0  0  0  0  0  0  0
   -2.0273    0.5132   -0.1208 C   0  0  0  0  0  0  0  0  0  0  0  0
   -3.3836    0.2954    0.1288 C   0  0  0  0  0  0  0  0  0  0  0  0
   -3.9091   -0.9925    0.0339 C   0  0  0  0  0  0  0  0  0  0  0  0
   -3.4793   -3.0742   -0.3644 H   0  0  0  0  0  0  0  0  0  0  0  0
   -1.0449   -2.6756   -0.7694 H   0  0  0  0  0  0  0  0  0  0  0  0
    1.2364   -0.7162    0.5441 S   0  0  0  0  0  0  0  0  0  0  0  0
    2.6884    0.2342   -0.2508 C   0  0  0  0  0  0  0  0  0  0  0  0
    0.1680   -0.3771   -0.7194 O   0  0  0  0  0  0  0  0  0  0  0  0
    0.7989   -0.0164    1.7633 O   0  0  0  0  0  0  0  0  0  0  0  0
    1.5683   -2.1504    0.5422 O   0  0  0  0  0  0  0  0  0  0  0  0
    2.9273   -0.2527   -1.4668 F   0  0  0  0  0  0  0  0  0  0  0  0
    2.4056    1.5274   -0.3140 F   0  0  0  0  0  0  0  0  0  0  0  0
    3.7490    0.0330    0.5362 F   0  0  0  0  0  0  0  0  0  0  0  0
   -4.9703   -1.1565    0.2169 H   0  0  0  0  0  0  0  0  0  0  0  0
   -1.5395    1.9037   -0.0495 N   0  0  0  0  0  0  0  0  0  0  0  0
   -2.1022    2.6479    0.7482 O   0  0  0  0  0  0  0  0  0  0  0  0
   -0.6337    2.2338   -0.8065 O   0  0  0  0  0  0  0  0  0  0  0  0
   -4.0073    1.1468    0.3913 H   0  0  0  0  0  0  0  0  0  0  0  0
  1  6  2  0  0  0  0
  2  3  2  0  0  0  0
  2  1  1  0  0  0  0
  3  4  1  0  0  0  0
  4 18  1  0  0  0  0
  4  5  2  0  0  0  0
  5 21  1  0  0  0  0
  6  5  1  0  0  0  0
  6 17  1  0  0  0  0
  7  1  1  0  0  0  0
  8  2  1  0  0  0  0
  9 12  2  0  0  0  0
 10 16  1  0  0  0  0
 10  9  1  0  0  0  0
 11  3  1  0  0  0  0
 11  9  1  0  0  0  0
 13  9  2  0  0  0  0
 14 10  1  0  0  0  0
 15 10  1  0  0  0  0
 18 19  2  0  0  0  0
 20 18  2  0  0  0  0
M  END
