p-NO2-Ph-OTs-RB3LYP-aug-cc-pVDZ.log
 OpenBabel05031703513D
Gaussian home/ubuntu/g09/g09 #p opt=(verytight,maxcycles=1000) SCF=(maxcycles=10
 31 32  0  0  0  0  0  0  0  0999 V2000
   -3.3594    1.2180   -0.3669 C   0  0  0  0  0  0  0  0  0  0  0  0
   -1.9660    1.2164   -0.3681 C   0  0  0  0  0  0  0  0  0  0  0  0
   -1.2825   -0.0039   -0.3577 C   0  0  0  0  0  0  0  0  0  0  0  0
   -1.9651   -1.2246   -0.3346 C   0  0  0  0  0  0  0  0  0  0  0  0
   -3.3585   -1.2271   -0.3333 C   0  0  0  0  0  0  0  0  0  0  0  0
   -4.0339   -0.0048   -0.3511 C   0  0  0  0  0  0  0  0  0  0  0  0
   -1.4030    2.1471   -0.3777 H   0  0  0  0  0  0  0  0  0  0  0  0
   -1.4015   -2.1548   -0.3187 H   0  0  0  0  0  0  0  0  0  0  0  0
   -3.9241   -2.1551   -0.3188 H   0  0  0  0  0  0  0  0  0  0  0  0
    3.2254   -1.2187    0.1039 C   0  0  0  0  0  0  0  0  0  0  0  0
    4.5130   -1.2120   -0.4288 C   0  0  0  0  0  0  0  0  0  0  0  0
    5.1812   -0.0057   -0.7065 C   0  0  0  0  0  0  0  0  0  0  0  0
    4.5251    1.2041   -0.4326 C   0  0  0  0  0  0  0  0  0  0  0  0
    3.2346    1.2234    0.1010 C   0  0  0  0  0  0  0  0  0  0  0  0
    2.6042    0.0066    0.3593 C   0  0  0  0  0  0  0  0  0  0  0  0
    2.7136   -2.1516    0.3315 H   0  0  0  0  0  0  0  0  0  0  0  0
    5.0107   -2.1619   -0.6286 H   0  0  0  0  0  0  0  0  0  0  0  0
    5.0305    2.1488   -0.6347 H   0  0  0  0  0  0  0  0  0  0  0  0
    2.7311    2.1617    0.3255 H   0  0  0  0  0  0  0  0  0  0  0  0
    0.9559    0.0147    1.0519 S   0  0  0  0  0  0  0  0  0  0  0  0
    0.6676    1.3078    1.7087 O   0  0  0  0  0  0  0  0  0  0  0  0
    0.6682   -1.2620    1.7402 O   0  0  0  0  0  0  0  0  0  0  0  0
    0.1068   -0.0043   -0.4422 O   0  0  0  0  0  0  0  0  0  0  0  0
    6.5764   -0.0237   -1.2804 C   0  0  0  0  0  0  0  0  0  0  0  0
    7.2713   -0.5448   -0.6061 H   0  0  0  0  0  0  0  0  0  0  0  0
    6.5979   -0.5554   -2.2427 H   0  0  0  0  0  0  0  0  0  0  0  0
    6.9567    0.9917   -1.4432 H   0  0  0  0  0  0  0  0  0  0  0  0
   -3.9256    2.1456   -0.3778 H   0  0  0  0  0  0  0  0  0  0  0  0
   -5.5087   -0.0054   -0.3558 N   0  0  0  0  0  0  0  0  0  0  0  0
   -6.0808   -1.0931   -0.3432 O   0  0  0  0  0  0  0  0  0  0  0  0
   -6.0816    1.0818   -0.3728 O   0  0  0  0  0  0  0  0  0  0  0  0
  1  6  1  0  0  0  0
  2  1  2  0  0  0  0
  2  3  1  0  0  0  0
  3  4  2  0  0  0  0
  4  5  1  0  0  0  0
  4  8  1  0  0  0  0
  5  9  1  0  0  0  0
  6  5  2  0  0  0  0
  7  2  1  0  0  0  0
 10 16  1  0  0  0  0
 10 15  1  0  0  0  0
 11 10  2  0  0  0  0
 12 13  2  0  0  0  0
 12 11  1  0  0  0  0
 13 14  1  0  0  0  0
 14 19  1  0  0  0  0
 14 15  2  0  0  0  0
 15 20  1  0  0  0  0
 17 11  1  0  0  0  0
 18 13  1  0  0  0  0
 20 21  2  0  0  0  0
 20 22  2  0  0  0  0
 23  3  1  0  0  0  0
 23 20  1  0  0  0  0
 24 12  1  0  0  0  0
 24 25  1  0  0  0  0
 26 24  1  0  0  0  0
 27 24  1  0  0  0  0
 28  1  1  0  0  0  0
 29  6  1  0  0  0  0
 29 30  2  0  0  0  0
 31 29  2  0  0  0  0
M  END
